   63
Geometry Step: 222
    O     -3.96848358      0.08425912      0.75479893      6.73734862
    H     -4.92402235      0.12162396      0.83770323      0.64374805
    H     -3.67652939      0.83192372      0.19409124      0.60325779
    O     -3.12403712     -2.12115714     -0.82889743      6.76811331
    H     -3.39102891     -1.38841235     -0.24680839      0.62279125
    H     -2.52990487     -2.70644671     -0.31283903      0.60894892
    O     -3.30164020      2.30466012     -0.73873979      6.75874884
    H     -2.55667890      2.72535570     -0.23721255      0.59588978
    H     -3.87358481      3.01075229     -1.05200121      0.64082425
    O     -2.21359624     -0.12979690      2.95699693      6.76609300
    H     -1.77003725      0.73701504      3.01115851      0.62022019
    H     -2.83949037     -0.10452425      2.21063994      0.61625640
    O     -1.91287056     -1.36465283     -3.06337942      6.76356095
    H     -2.35163850     -1.62357545     -2.20710703      0.59551304
    H     -2.44025390     -1.73635160     -3.77608972      0.64142299
    O     -1.73427794      1.43641030     -2.94292174      6.76353990
    H     -1.79397120      0.47064783     -3.05542212      0.62216015
    H     -2.28916155      1.68225389     -2.18328879      0.62594591
    O     -1.24341087     -3.48831222      0.63811770      6.76300498
    H     -1.04383411     -3.13791066      1.52402367      0.62431956
    H     -0.40046038     -3.66486424      0.18839653      0.62871758
    O     -1.34458453      3.51330592      0.62187060      6.76454757
    H     -0.46774569      3.57937688      0.20493292      0.62081814
    H     -1.22208019      3.13493921      1.51343377      0.61695617
    O     -0.61094084     -2.27334376      3.08951562      6.75707563
    H     -1.19605583     -1.47612467      3.03411611      0.59934613
    H     -0.85000479     -2.74899630      3.88965646      0.64181726
    O     -0.78830411      2.28628955      3.05687682      6.76487826
    H      0.16071400      1.99545790      2.97984373      0.59499423
    H     -0.87534947      2.75901382      3.88952162      0.64024884
    O      0.70766803     -2.28402034     -2.86693993      6.77200406
    H      1.31667875     -1.52759709     -2.96961225      0.61644494
    H     -0.20712617     -1.96431559     -2.99680322      0.61505897
    O      0.89329347      2.14225444     -2.87694993      6.77424967
    H      0.98130330      2.69782290     -2.08386565      0.62710846
    H     -0.06365651      1.95774851     -3.01100987      0.60600680
    O      1.20337821     -3.81777558     -0.75780600      6.76481191
    H      1.00641784     -3.23112312     -1.53721455      0.59392579
    H      1.28392950     -4.71618133     -1.09045298      0.63987174
    O      1.26602686      3.59453607     -0.46619836      6.74430771
    H      1.97520676      3.07139235     -0.03400009      0.60292808
    H      1.60995359      4.47386240     -0.64182083      0.64143740
    O      1.99431759     -1.19603828      2.95608602      6.75768880
    H      1.12466371     -1.62194131      3.05168197      0.62553011
    H      2.40987949     -1.54227456      2.14877329      0.62509971
    O      1.74197489      1.51564562      2.88459294      6.77806980
    H      2.28772613      1.77645901      2.12174236      0.62345850
    H      1.86988205      0.54877466      3.01743108      0.60571428
    O      2.38380274     -0.05395029     -3.05397079      6.76076470
    H      1.82414823      0.76289987     -2.96935432      0.59672665
    H      2.89076429      0.02984815     -3.86634918      0.64108621
    O      3.12284687     -2.43534055      0.65333796      6.73717638
    H      3.80895949     -3.06924452      0.87410378      0.64373999
    H      2.41094408     -2.90389156      0.17154753      0.60659862
    O      3.33146036      2.17566503      0.63985509      6.76687443
    H      4.19218375      2.50292736      0.91692487      0.63853653
    H      3.48765071      1.32240027      0.14736257      0.59103857
    O      3.89321531     -0.05566805     -0.68119484      6.75891494
    H      3.63200215     -0.84124511     -0.16761261      0.61628912
    H      3.40006051     -0.08394501     -1.52252574      0.61860842
    C      0.00000000      0.00000000      0.00000000      3.25725669
    O     -1.14910716      0.16674873     -0.13662605      6.36907673
    O      1.15016700     -0.16129964      0.13635255      6.37248763
