3
COMMENT_LINE
O 2.49725220617 -3.06164131226 -0.579471417963
H 1.820008437233 -2.86984260773 0.0692087608455
H 2.12481006239 -2.7654665443 -1.41001292587
3
COMMENT_LINE
H 0.820008437233 -3.86984260773 0.0692087608455
H 1.12481006239 -3.7654665443 -1.41001292587
O 1.49725220617 -4.06164131226 -0.579471417963
3
COMMENT_LINE
H 6.820008437233 -2.86984260773 0.0692087608455
O 7.49725220617 -3.06164131226 -0.579471417963
H 7.12481006239 -2.7654665443 -1.41001292587